14
	Energy:      13.4653345
C         -5.22200        1.70985        0.08919
O         -4.02946        1.97224       -0.59862
C         -2.99480        1.99980        0.35432
C         -1.67463        2.28017       -0.35418
O         -0.63972        2.30623        0.59853
C          0.55649        2.54191       -0.09259
H         -5.53111        1.80817       -1.10080
H         -5.05931        1.64530        1.22476
H         -3.16613        2.81268        1.09884
H         -2.90651        1.01331        0.86769
H         -1.76067        3.26696       -0.86707
H         -1.50561        1.46708       -1.09919
H          0.53560        3.62886        0.28856
H          0.63026        1.40254       -0.34908
